%nprocshared=8
%mem=150MW
%chk=C:\Users\Administrator\Desktop\dataset_dft\C12H8O1\C12H8O1.chk
# scan b3lyp/6-31++g(d,p) nosymm

Title Card Required

0 1
 C(PDBName=C,ResName=MOL,ResNum=1)                 
 C(PDBName=C,ResName=MOL,ResNum=1)                     1            B1
 C(PDBName=C,ResName=MOL,ResNum=1)                     2            B2    1            A1
 C(PDBName=C,ResName=MOL,ResNum=1)                     3            B3    2            A2    1            D1    0
 C(PDBName=C,ResName=MOL,ResNum=1)                     4            B4    3            A3    2            D2    0
 C(PDBName=C,ResName=MOL,ResNum=1)                     5            B5    4            A4    3            D3    0
 H(PDBName=H,ResName=MOL,ResNum=1)                     2            B6    1            A5    6            D4    0
 C(PDBName=C,ResName=MOL,ResNum=1)                     4            B7    3            A6    2            D5    0
 C(PDBName=C,ResName=MOL,ResNum=1)                     8            B8    4            A7    3            D6    0
 C(PDBName=C,ResName=MOL,ResNum=1)                     9            B9    8            A8    4            D7    0
 C(PDBName=C,ResName=MOL,ResNum=1)                    10           B10    9            A9    8            D8    0
 C(PDBName=C,ResName=MOL,ResNum=1)                    11           B11   10           A10    9            D9    0
 C(PDBName=C,ResName=MOL,ResNum=1)                     8           B12    4           A11    3           D10    0
 H(PDBName=H,ResName=MOL,ResNum=1)                    10           B13    9           A12    8           D11    0
 H(PDBName=H,ResName=MOL,ResNum=1)                    12           B14   11           A13   10           D12    0
 H(PDBName=H,ResName=MOL,ResNum=1)                     6           B15    5           A14    4           D13    0
 H(PDBName=H,ResName=MOL,ResNum=1)                     5           B16    4           A15    3           D14    0
 H(PDBName=H,ResName=MOL,ResNum=1)                    13           B17    8           A16    4           D15    0
 H(PDBName=H,ResName=MOL,ResNum=1)                     1           B18    2           A17    3           D16    0
 H(PDBName=H,ResName=MOL,ResNum=1)                    11           B19   10           A18    9           D17    0
 O(PDBName=O,ResName=MOL,ResNum=1)                     4           B20    3           A19    2           D18    0

   B1             1.39546175
   B2             1.40098690
   B3             1.40838148
   B4             1.38876849
   B5             1.39782425
   B6             1.08591568
   B7             1.00000000 10 0.100000
   B8             1.40854270
   B9             1.40087569
   B10            1.39540951
   B11            1.40679644
   B12            1.38890433
   B13            1.08594859
   B14            1.08579438
   B15            1.08574728
   B16            1.08455037
   B17            1.08457762
   B18            1.08572951
   B19            1.08568877
   B20            1.37801062
   A1           118.61594460
   A2           118.97632197
   A3           123.41457120
   A4           116.64361329
   A5           120.55468507
   A6            74.58580095
   A7            74.59057916
   A8           118.97807303
   A9           118.62370225
   A10          121.04022978
   A11          162.00779992
   A12          120.82487867
   A13          119.43491474
   A14          119.24212209
   A15          121.29468640
   A16          121.25932549
   A17          119.58679151
   A18          119.60131068
   A19          111.56125541
   D1             0.00000000
   D2             0.00000000
   D3             0.00000000
   D4           180.00000000
   D5          -180.00000000
   D6            -0.00000000
   D7          -179.99963025
   D8            -0.00000000
   D9            -0.00000000
   D10         -179.99936770
   D11         -179.99969878
   D12          179.99961533
   D13         -179.99968911
   D14          179.99919593
   D15           -0.00141096
   D16         -180.00000000
   D17         -180.00000000
   D18         -180.00000000


