%nprocshared=8
%mem=150MW
%chk=C:\Users\Administrator\Desktop\dataset_dft\C8H6O3\C8H6O3.chk
# scan b3lyp/6-31++g(d,p) nosymm

Title Card Required

0 1
 C(PDBName=C,ResName=MOL,ResNum=1)                 
 C(PDBName=C,ResName=MOL,ResNum=1)                     1            B1
 C(PDBName=C,ResName=MOL,ResNum=1)                     2            B2    1            A1
 C(PDBName=C,ResName=MOL,ResNum=1)                     3            B3    2            A2    1            D1    0
 C(PDBName=C,ResName=MOL,ResNum=1)                     4            B4    3            A3    2            D2    0
 C(PDBName=C,ResName=MOL,ResNum=1)                     5            B5    4            A4    3            D3    0
 H(PDBName=H,ResName=MOL,ResNum=1)                     3            B6    2            A5    1            D4    0
 H(PDBName=H,ResName=MOL,ResNum=1)                     1            B7    2            A6    3            D5    0
 C(PDBName=C,ResName=MOL,ResNum=1)                     6            B8    5            A7    4            D6    0
 H(PDBName=H,ResName=MOL,ResNum=1)                     9            B9    6            A8    5            D7    0
 H(PDBName=H,ResName=MOL,ResNum=1)                     9           B10    6            A9    5            D8    0
 H(PDBName=H,ResName=MOL,ResNum=1)                     9           B11    6           A10    5            D9    0
 C(PDBName=C,ResName=MOL,ResNum=1)                     2           B12    1           A11    6           D10    0
 H(PDBName=H,ResName=MOL,ResNum=1)                    13           B13    2           A12    1           D11    0
 H(PDBName=H,ResName=MOL,ResNum=1)                    13           B14    2           A13    1           D12    0
 H(PDBName=H,ResName=MOL,ResNum=1)                    13           B15    2           A14    1           D13    0
 C(PDBName=C,ResName=MOL,ResNum=1)                     4           B16    3           A15    2           D14    0
 H(PDBName=H,ResName=MOL,ResNum=1)                    17           B17    4           A16    3           D15    0
 H(PDBName=H,ResName=MOL,ResNum=1)                    17           B18    4           A17    3           D16    0
 H(PDBName=H,ResName=MOL,ResNum=1)                    17           B19    4           A18    3           D17    0
 O(PDBName=O,ResName=MOL,ResNum=1)                     5           B20    4           A19    3           D18    0
 H(PDBName=H,ResName=MOL,ResNum=1)                    21           B21    5           A20    4           D19    0

   B1             1.40172372
   B2             1.40678890
   B3             1.40091456
   B4             1.40574604
   B5             1.40428866
   B6             1.08774720
   B7             1.08755560
   B8             1.51368221
   B9             1.09410205
   B10            1.10014242
   B11            1.10014305
   B12            1.51477120
   B13            0.50000000 20 0.100000
   B14            1.09783685
   B15            1.09526065
   B16            1.50915325
   B17            1.09675659
   B18            1.09456869
   B19            1.09672150
   B20            1.40546547
   B21            0.97443585
   A1           118.05489243
   A2           122.11195318
   A3           117.82388104
   A4           122.15571465
   A5           119.40658646
   A6           119.42693933
   A7           120.96328413
   A8           110.52751361
   A9           112.22032978
   A10          112.21958670
   A11          121.20324230
   A12          111.48295131
   A13          111.48150097
   A14          111.19313304
   A15          122.00457753
   A16          111.24153960
   A17          110.76869590
   A18          111.24276989
   A19          115.75361474
   A20          112.62722068
   D1            -0.00852575
   D2            -0.00133353
   D3             0.00703282
   D4           179.98577911
   D5          -179.98917970
   D6           179.98938788
   D7          -179.99524881
   D8            60.71536748
   D9           -60.70593948
   D10         -179.96336306
   D11         -120.59576262
   D12          119.65332994
   D13           -0.46377751
   D14         -179.99769154
   D15          120.65588323
   D16           -0.10528748
   D17         -120.87650648
   D18         -179.99764726
   D19         -179.99345926


 2 3 1.5 13 1.0
 3 4 1.5 7 1.0
 4 5 1.5 17 1.0
 5 6 1.5 21 1.0
 6 9 1.0
 7
 8
 9 10 1.0 11 1.0 12 1.0
 10
 11
 12
 13 14 1.0 15 1.0 16 1.0
 14
 15
 16
 17 18 1.0 19 1.0 20 1.0
 18
 19
 20
 21 22 1.0
 22




