%chk=C:\Users\Administrator\Desktop\dataset_dft\C13H12O2.chk
# opt=rfo b3lyp/6-31++g geom=connectivity

Title Card Required

0 1
 C(PDBName=C,ResName=MOL,ResNum=1)                     3.50584383    0.37421504   -0.88054145
 C(PDBName=C,ResName=MOL,ResNum=1)                     2.30926094    1.09871113   -0.91050197
 C(PDBName=C,ResName=MOL,ResNum=1)                     1.28528259    0.86544636    0.02484778
 C(PDBName=C,ResName=MOL,ResNum=1)                     1.49486995   -0.12606899    0.99952323
 C(PDBName=C,ResName=MOL,ResNum=1)                     2.68653065   -0.85816559    1.04387859
 C(PDBName=C,ResName=MOL,ResNum=1)                     3.68986734   -0.60343816    0.10004146
 H(PDBName=H,ResName=MOL,ResNum=1)                     2.17129141    1.85952663   -1.67441874
 H(PDBName=H,ResName=MOL,ResNum=1)                     0.71664089   -0.33532717    1.72803427
 H(PDBName=H,ResName=MOL,ResNum=1)                     2.82885719   -1.62030535    1.80639206
 H(PDBName=H,ResName=MOL,ResNum=1)                     4.29432011    0.55341547   -1.60265595
 C(PDBName=C,ResName=MOL,ResNum=1)                    -1.49426464   -0.12793331   -0.99852127
 C(PDBName=C,ResName=MOL,ResNum=1)                    -1.28530980    0.86528513   -0.02544786
 C(PDBName=C,ResName=MOL,ResNum=1)                    -2.30988762    1.10018586    0.90883439
 C(PDBName=C,ResName=MOL,ResNum=1)                    -3.50646809    0.37566301    0.87934955
 C(PDBName=C,ResName=MOL,ResNum=1)                    -3.68985886   -0.60370375   -0.09963951
 C(PDBName=C,ResName=MOL,ResNum=1)                    -2.68588944   -0.86012055   -1.04234617
 H(PDBName=H,ResName=MOL,ResNum=1)                    -2.17241055    1.86232607    1.67151856
 H(PDBName=H,ResName=MOL,ResNum=1)                    -4.29541550    0.55615288    1.60062761
 H(PDBName=H,ResName=MOL,ResNum=1)                    -2.82769342   -1.62367252   -1.80354311
 H(PDBName=H,ResName=MOL,ResNum=1)                    -0.71555406   -0.33847960   -1.72614258
 C(PDBName=C,ResName=MOL,ResNum=1)                    -0.00004683    1.68297996   -0.00061612
 H(PDBName=H,ResName=MOL,ResNum=1)                    -0.02889244    2.34629621    0.87545834
 H(PDBName=H,ResName=MOL,ResNum=1)                     0.02871224    2.34562473   -0.87720620
 O(PDBName=O,ResName=MOL,ResNum=1)                     4.90544043   -1.29842064    0.08189089
 H(PDBName=H,ResName=MOL,ResNum=1)                     4.96629057   -1.96278727    0.79448415
 O(PDBName=O,ResName=MOL,ResNum=1)                    -4.90536500   -1.29879095   -0.08094394
 H(PDBName=H,ResName=MOL,ResNum=1)                    -4.96632993   -1.96341418   -0.79328785

 1 2 1.5 6 1.5 10 1.0
 2 3 1.5 7 1.0
 3 4 1.5 21 1.0
 4 5 1.5 8 1.0
 5 6 1.5 9 1.0
 6 24 1.0
 7
 8
 9
 10
 11 12 1.5 16 1.5 20 1.0
 12 13 1.5 21 1.0
 13 14 1.5 17 1.0
 14 15 1.5 18 1.0
 15 16 1.5 26 1.0
 16 19 1.0
 17
 18
 19
 20
 21 22 1.0 23 1.0
 22
 23
 24 25 1.0
 25
 26 27 1.0
 27


